*NODE,NSET=Nall
1, 2.77163859753, -1.1480502971, 0.0
2, 2.77163859753, 0.0, 0.0
3, 2.77163859753, 1.1480502971, 0.0
4, 1.95984444731, 1.95984444731, 0.0
5, 1.1480502971, 2.77163859753, 0.0
6, 1.11022302463e-16, 2.77163859753, 0.0
7, -1.1480502971, 2.77163859753, 0.0
8, -1.95984444731, 1.95984444731, 0.0
9, -2.77163859753, 1.1480502971, 0.0
10, -2.77163859753, 3.33066907388e-16, 0.0
11, -2.77163859753, -1.1480502971, 0.0
12, -1.95984444731, -1.95984444731, 0.0
13, -1.1480502971, -2.77163859753, 0.0
14, -1.7763568394e-15, -2.77163859753, 0.0
15, 1.1480502971, -2.77163859753, 0.0
16, 1.95984444731, -1.95984444731, 0.0
17, 2.12132034356, -2.12132034356, 1.77777777778
18, 2.56066017178, -1.06066017178, 1.77777777778
19, 3.0, 0.0, 1.77777777778
20, 2.56066017178, 1.06066017178, 1.77777777778
** ... 402 like lines cut
*ELEMENT,TYPE=B32
1, 1, 2, 3
2, 3, 4, 5
3, 5, 6, 7
4, 7, 8, 9
5, 9, 10, 11
6, 11, 12, 13
7, 13, 14, 15
8, 15, 16, 1
9, 17, 18, 19
10, 19, 20, 21
11, 21, 22, 23
12, 23, 24, 25
13, 25, 26, 27
14, 27, 28, 29
15, 29, 30, 31
16, 31, 32, 17
17, 33, 34, 35
18, 35, 36, 37
19, 37, 38, 39
20, 39, 40, 41
** ... 274 like lines cut
*ELSET,ELSET=ES1
1,18,35,52,69
*ELSET,ELSET=ES2
2,19,36,53,70,256,281
*ELSET,ELSET=ES3
3,20,37,54,71,241,242,243,244,255,277
*ELSET,ELSET=ES4
4,21,38,55,72,265,273
*ELSET,ELSET=ES5
5,22,39,56,65,245,246,247,269
*ELSET,ELSET=ES6
6,23,40,49,66,262
*ELSET,ELSET=ES7
7,24,33,50,67,261
*ELSET,ELSET=ES8
8,17,34,51,68,259
*ELSET,ELSET=ES9
9,26,43,60,258
*ELSET,ELSET=ES10
10,27,44,61,257
*ELSET,ELSET=ES11
11,28,45,62,279
*ELSET,ELSET=ES12
12,29,46,63,254,275
*ELSET,ELSET=ES13
13,30,47,64,264,271,282,283,284,285
*ELSET,ELSET=ES14
14,31,48,57,263,267
*ELSET,ELSET=ES15
15,32,41,58,286,287,288
*ELSET,ELSET=ES16
16,25,42,59,260
*ELSET,ELSET=ES17
73,98,107,132,149
*ELSET,ELSET=ES18
74,99,108,133,144,145,146
*ELSET,ELSET=ES19
75,100,109,134,151
*ELSET,ELSET=ES20
76,101,110,135,148
** ... 94 like lines cut
*ELSET,ELSET=EAll,GENERATE
1,294
*BOUNDARY
1,1,3
3,1,3
5,1,3
7,1,3
9,1,3
11,1,3
13,1,3
15,1,3
346,1,3
348,1,3
350,1,3
352,1,3
*MATERIAL,NAME=WOOD
*ELASTIC,TYPE=ENGINEERING CONSTANTS
1.8E8,6.9E6,6.9E6,.337,.337,.372,8.1E6,8.1E6
9.E5
*DENSITY
34.
*MATERIAL,NAME=ACRY
*ELASTIC
6.0E7,.37
*DENSITY
74.3
*ORIENTATION,NAME=O1
0.0,1.0,0.0,0,0,1
*ORIENTATION,NAME=O2
-0.707106781187,0.707106781187,0.0,0,0,1
*ORIENTATION,NAME=O3
-1.0,0.0,0.0,0,0,1
*ORIENTATION,NAME=O4
-0.707106781187,-0.707106781187,0.0,0,0,1
*ORIENTATION,NAME=O5
0.0,-1.0,0.0,0,0,1
*ORIENTATION,NAME=O6
0.707106781187,-0.707106781187,0.0,0,0,1
*ORIENTATION,NAME=O7
1.0,-3.86820343128e-16,0.0,0,0,1
*ORIENTATION,NAME=O8
0.707106781187,0.707106781187,0.0,0,0,1
*ORIENTATION,NAME=O9
0.382683432365,0.923879532511,0.0,0,0,1
*ORIENTATION,NAME=O10
-0.382683432365,0.923879532511,0.0,0,0,1
*ORIENTATION,NAME=O11
-0.923879532511,0.382683432365,0.0,0,0,1
*ORIENTATION,NAME=O12
-0.923879532511,-0.382683432365,0.0,0,0,1
*ORIENTATION,NAME=O13
-0.382683432365,-0.923879532511,0.0,0,0,1
*ORIENTATION,NAME=O14
0.382683432365,-0.923879532511,0.0,0,0,1
*ORIENTATION,NAME=O15
0.923879532511,-0.382683432365,0.0,0,0,1
*ORIENTATION,NAME=O16
0.923879532511,0.382683432365,0.0,0,0,1
*ORIENTATION,NAME=O17
-0.305523837997,-0.457248736579,0.835211815836,0,0,1
*ORIENTATION,NAME=O18
0.107285704662,0.539361659986,0.835211815836,0,0,1
*ORIENTATION,NAME=O19
0.107285704662,-0.539361659986,0.835211815836,0,0,1
*ORIENTATION,NAME=O20
** ... 77 like lines cut
*BEAM SECTION,ELSET=ES1,MATERIAL=WOOD,SECTION=RECT,ORIENTATION=O1
.292,.125
*BEAM SECTION,ELSET=ES2,MATERIAL=WOOD,SECTION=RECT,ORIENTATION=O2
.292,.125
*BEAM SECTION,ELSET=ES3,MATERIAL=WOOD,SECTION=RECT,ORIENTATION=O3
.292,.125
*BEAM SECTION,ELSET=ES4,MATERIAL=WOOD,SECTION=RECT,ORIENTATION=O4
.292,.125
*BEAM SECTION,ELSET=ES5,MATERIAL=WOOD,SECTION=RECT,ORIENTATION=O5
.292,.125
*BEAM SECTION,ELSET=ES6,MATERIAL=WOOD,SECTION=RECT,ORIENTATION=O6
.292,.125
*BEAM SECTION,ELSET=ES7,MATERIAL=WOOD,SECTION=RECT,ORIENTATION=O7
.292,.125
*BEAM SECTION,ELSET=ES8,MATERIAL=WOOD,SECTION=RECT,ORIENTATION=O8
.292,.125
*BEAM SECTION,ELSET=ES9,MATERIAL=WOOD,SECTION=RECT,ORIENTATION=O9
.292,.125
*BEAM SECTION,ELSET=ES10,MATERIAL=WOOD,SECTION=RECT,ORIENTATION=O10
.292,.125
*BEAM SECTION,ELSET=ES11,MATERIAL=WOOD,SECTION=RECT,ORIENTATION=O11
.292,.125
*BEAM SECTION,ELSET=ES12,MATERIAL=WOOD,SECTION=RECT,ORIENTATION=O12
.292,.125
*BEAM SECTION,ELSET=ES13,MATERIAL=WOOD,SECTION=RECT,ORIENTATION=O13
.292,.125
*BEAM SECTION,ELSET=ES14,MATERIAL=WOOD,SECTION=RECT,ORIENTATION=O14
.292,.125
*BEAM SECTION,ELSET=ES15,MATERIAL=WOOD,SECTION=RECT,ORIENTATION=O15
.292,.125
*BEAM SECTION,ELSET=ES16,MATERIAL=WOOD,SECTION=RECT,ORIENTATION=O16
.292,.125
*BEAM SECTION,ELSET=ES17,MATERIAL=WOOD,SECTION=RECT,ORIENTATION=O17
.292,.125
*BEAM SECTION,ELSET=ES18,MATERIAL=WOOD,SECTION=RECT,ORIENTATION=O18
.292,.125
*BEAM SECTION,ELSET=ES19,MATERIAL=WOOD,SECTION=RECT,ORIENTATION=O19
.292,.125
*BEAM SECTION,ELSET=ES20,MATERIAL=WOOD,SECTION=RECT,ORIENTATION=O20
.292,.125
** ... 72 like lines cut
*BEAM SECTION,ELSET=ES57,MATERIAL=ACRY,SECTION=RECT,ORIENTATION=O10
.592,.833
*BEAM SECTION,ELSET=ES58,MATERIAL=ACRY,SECTION=RECT,ORIENTATION=O1
.592,.833
*BEAM SECTION,ELSET=ES59,MATERIAL=ACRY,SECTION=RECT,ORIENTATION=O9
.592,.833
*BEAM SECTION,ELSET=ES60,MATERIAL=ACRY,SECTION=RECT,ORIENTATION=O8
.592,.833
*BEAM SECTION,ELSET=ES61,MATERIAL=ACRY,SECTION=RECT,ORIENTATION=O16
.592,.833
*BEAM SECTION,ELSET=ES62,MATERIAL=ACRY,SECTION=RECT,ORIENTATION=O7
.592,.833
*BEAM SECTION,ELSET=ES63,MATERIAL=ACRY,SECTION=RECT,ORIENTATION=O15
.592,.833
*BEAM SECTION,ELSET=ES64,MATERIAL=ACRY,SECTION=RECT,ORIENTATION=O6
.592,.833
*BEAM SECTION,ELSET=ES65,MATERIAL=WOOD,SECTION=RECT,ORIENTATION=O56
.292,.125
*BEAM SECTION,ELSET=ES66,MATERIAL=WOOD,SECTION=RECT,ORIENTATION=O57
.292,.125
*BEAM SECTION,ELSET=ES67,MATERIAL=WOOD,SECTION=RECT,ORIENTATION=O58
.292,.125
*STEP
*STATIC
*DLOAD
EAll,GRAV,3.22E1,0.,0.,-1.
*CLOAD
354,3,-209.439510239
356,3,-418.879020479
358,3,-418.879020479
360,3,-209.439510239
353,3,-418.879020479
355,3,-837.758040957
357,3,-837.758040957
359,3,-418.879020479
75,3,-209.439510239
77,3,-418.879020479
79,3,-418.879020479
65,3,-209.439510239
382,3,-200.
383,3,-200.
385,3,-200.
386,3,-200.
388,3,-200.
389,3,-200.
391,3,-200.
392,3,-200.
** ... 20 like lines cut
*EL PRINT,ELSET=ETwoFour
S
*EL PRINT,ELSET=ETwoTen
S
*EL FILE
S
*NODE FILE
U
*END STEP
