*NODE,NSET=Nall
1, 2.77163859753, -1.1480502971, 0.0
2, 2.77163859753, 0.0, 0.0
3, 2.77163859753, 1.1480502971, 0.0
4, 1.95984444731, 1.95984444731, 0.0
5, 1.1480502971, 2.77163859753, 0.0
6, 1.11022302463e-16, 2.77163859753, 0.0
7, -1.1480502971, 2.77163859753, 0.0
8, -1.95984444731, 1.95984444731, 0.0
9, -2.77163859753, 1.1480502971, 0.0
10, -2.77163859753, 3.33066907388e-16, 0.0
11, -2.77163859753, -1.1480502971, 0.0
12, -1.95984444731, -1.95984444731, 0.0
13, -1.1480502971, -2.77163859753, 0.0
14, -1.7763568394e-15, -2.77163859753, 0.0
15, 1.1480502971, -2.77163859753, 0.0
16, 1.95984444731, -1.95984444731, 0.0
17, 2.12132034356, -2.12132034356, 1.77777777778
18, 2.56066017178, -1.06066017178, 1.77777777778
19, 3.0, 0.0, 1.77777777778
20, 2.56066017178, 1.06066017178, 1.77777777778
** ... 124 like lines cut
*ELEMENT,TYPE=B32
1, 1, 2, 3
2, 3, 4, 5
3, 5, 6, 7
4, 7, 8, 9
5, 9, 10, 11
6, 11, 12, 13
7, 13, 14, 15
8, 15, 16, 1
9, 17, 18, 19
10, 19, 20, 21
11, 21, 22, 23
12, 23, 24, 25
13, 25, 26, 27
14, 27, 28, 29
15, 29, 30, 31
16, 31, 32, 17
17, 33, 34, 35
18, 35, 36, 37
19, 37, 38, 39
20, 39, 40, 41
** ... 52 like lines cut
*ELSET,ELSET=ES1
1,18,35,52,69
*ELSET,ELSET=ES2
2,19,36,53,70
*ELSET,ELSET=ES3
3,20,37,54,71
*ELSET,ELSET=ES4
4,21,38,55,72
*ELSET,ELSET=ES5
5,22,39,56,65
*ELSET,ELSET=ES6
6,23,40,49,66
*ELSET,ELSET=ES7
7,24,33,50,67
*ELSET,ELSET=ES8
8,17,34,51,68
*ELSET,ELSET=ES9
9,26,43,60
*ELSET,ELSET=ES10
10,27,44,61
*ELSET,ELSET=ES11
11,28,45,62
*ELSET,ELSET=ES12
12,29,46,63
*ELSET,ELSET=ES13
13,30,47,64
*ELSET,ELSET=ES14
14,31,48,57
*ELSET,ELSET=ES15
15,32,41,58
*ELSET,ELSET=ES16
16,25,42,59
*ELSET,ELSET=EAll,GENERATE
1,288
*BOUNDARY
1,1,3
3,1,3
5,1,3
7,1,3
9,1,3
11,1,3
13,1,3
15,1,3
346,1,3
348,1,3
350,1,3
352,1,3
*MATERIAL,NAME=WOOD
*ELASTIC,TYPE=ENGINEERING CONSTANTS
1.8E8,6.9E6,6.9E6,.337,.337,.372,8.1E6,8.1E6
9.E5
*DENSITY
34.
*MATERIAL,NAME=ACRY
*ELASTIC
6.0E7,.37
*DENSITY
74.3
*BEAM SECTION,ELSET=ES1
*BEAM SECTION,ELSET=ES2
*BEAM SECTION,ELSET=ES3
*BEAM SECTION,ELSET=ES4
*BEAM SECTION,ELSET=ES5
*BEAM SECTION,ELSET=ES6
*BEAM SECTION,ELSET=ES7
*BEAM SECTION,ELSET=ES8
*BEAM SECTION,ELSET=ES9
*BEAM SECTION,ELSET=ES10
*BEAM SECTION,ELSET=ES11
*BEAM SECTION,ELSET=ES12
*BEAM SECTION,ELSET=ES13
*BEAM SECTION,ELSET=ES14
*BEAM SECTION,ELSET=ES15
*BEAM SECTION,ELSET=ES16
*BEAM SECTION,ELSET=ETwoFour,MATERIAL=WOOD,SECTION=RECT
.292,.125
*BEAM SECTION,ELSET=EFourFour,MATERIAL=WOOD,SECTION=RECT
.292,.292
*BEAM SECTION,ELSET=ETwoTen,MATERIAL=WOOD,SECTION=RECT
.292,.25
*BEAM SECTION,ELSET=EAcry,MATERIAL=ACRY,SECTION=RECT
.592,.833
*STEP
*STATIC
*DLOAD
EAll,GRAV,3.22E1,0.,0.,-1.
*CLOAD
354,3,-209.439510239
356,3,-418.879020479
358,3,-418.879020479
360,3,-209.439510239
353,3,-418.879020479
355,3,-837.758040957
357,3,-837.758040957
359,3,-418.879020479
75,3,-209.439510239
77,3,-418.879020479
79,3,-418.879020479
65,3,-209.439510239
382,3,-200.
383,3,-200.
385,3,-200.
386,3,-200.
388,3,-200.
389,3,-200.
391,3,-200.
392,3,-200.
** ... 20 like lines cut
*EL PRINT,ELSET=ETwoFour
S
*EL PRINT,ELSET=ETwoTen
S
*EL FILE
S
*NODE FILE
U
*END STEP
