*NODE,NSET=Nall
1, 2.77163859753, -1.1480502971, 0.0
2, 2.77163859753, 0.0, 0.0
3, 2.77163859753, 1.1480502971, 0.0
4, 1.95984444731, 1.95984444731, 0.0
5, 1.1480502971, 2.77163859753, 0.0
6, 1.11022302463e-16, 2.77163859753, 0.0
7, -1.1480502971, 2.77163859753, 0.0
8, -1.95984444731, 1.95984444731, 0.0
9, -2.77163859753, 1.1480502971, 0.0
10, -2.77163859753, 3.33066907388e-16, 0.0
11, -2.77163859753, -1.1480502971, 0.0
12, -1.95984444731, -1.95984444731, 0.0
13, -1.1480502971, -2.77163859753, 0.0
14, -1.7763568394e-15, -2.77163859753, 0.0
15, 1.1480502971, -2.77163859753, 0.0
16, 1.95984444731, -1.95984444731, 0.0
17, 2.12132034356, -2.12132034356, 1.77777777778
18, 2.56066017178, -1.06066017178, 1.77777777778
19, 3.0, 0.0, 1.77777777778
20, 2.56066017178, 1.06066017178, 1.77777777778
** ... 372 like lines cut
*ELEMENT,TYPE=B32,ELSET=EFour
1, 1, 2, 3
2, 3, 4, 5
3, 5, 6, 7
4, 7, 8, 9
5, 9, 10, 11
6, 11, 12, 13
7, 13, 14, 15
8, 15, 16, 1
9, 17, 18, 19
10, 19, 20, 21
11, 21, 22, 23
12, 23, 24, 25
13, 25, 26, 27
14, 27, 28, 29
15, 29, 30, 31
16, 31, 32, 17
17, 33, 34, 35
18, 35, 36, 37
19, 37, 38, 39
20, 39, 40, 41
** ... 242 like lines cut
*ELEMENT,TYPE=B32,ELSET=ETen
263, 346, 354, 355
264, 347, 356, 357
265, 90, 358, 359
266, 348, 360, 361
267, 349, 362, 363
268, 104, 364, 365
269, 350, 366, 367
270, 351, 368, 369
271, 118, 370, 371
272, 352, 372, 373
273, 353, 374, 375
*BOUNDARY
1,1,3
3,1,3
5,1,3
7,1,3
9,1,3
11,1,3
13,1,3
15,1,3
322,1,3
324,1,3
326,1,3
328,1,3
*MATERIAL,NAME=WOOD
*ELASTIC
2.5E8,.038
*BEAM SECTION,ELSET=EFour,MATERIAL=WOOD,SECTION=RECT
.125,.292
*BEAM SECTION,ELSET=ETen,MATERIAL=WOOD,SECTION=RECT
.125,.771
*STEP
*STATIC
*CLOAD
329,3,-200.
331,3,-200.
333,3,-200.
335,3,-200.
354,3,-200.
356,3,-200.
358,3,-200.
360,3,-200.
362,3,-200.
364,3,-200.
366,3,-200.
368,3,-200.
370,3,-200.
372,3,-200.
374,3,-200.
376,3,-200.
378,3,-200.
380,3,-200.
382,3,-200.
*EL PRINT,ELSET=Eall
S
*EL FILE
S
*NODE FILE
U
*END STEP
