*NODE,NSET=Nall
1, 2.77163859753, -1.1480502971, 0.0
2, 2.77163859753, 0.0, 0.0
3, 2.77163859753, 1.1480502971, 0.0
4, 1.95984444731, 1.95984444731, 0.0
5, 1.1480502971, 2.77163859753, 0.0
6, 1.11022302463e-16, 2.77163859753, 0.0
7, -1.1480502971, 2.77163859753, 0.0
8, -1.95984444731, 1.95984444731, 0.0
9, -2.77163859753, 1.1480502971, 0.0
10, -2.77163859753, 3.33066907388e-16, 0.0
11, -2.77163859753, -1.1480502971, 0.0
12, -1.95984444731, -1.95984444731, 0.0
13, -1.1480502971, -2.77163859753, 0.0
14, -1.7763568394e-15, -2.77163859753, 0.0
15, 1.1480502971, -2.77163859753, 0.0
16, 1.95984444731, -1.95984444731, 0.0
17, 2.12132034356, -2.12132034356, 1.77777777778
18, 2.56066017178, -1.06066017178, 1.77777777778
19, 3.0, 0.0, 1.77777777778
20, 2.56066017178, 1.06066017178, 1.77777777778
** ... 402 like lines cut
*ELEMENT,TYPE=B32,ELSET=ETwoFour
1, 5, 6, 7
2, 7, 8, 9
3, 9, 10, 11
4, 11, 12, 13
5, 13, 14, 15
6, 15, 16, 1
7, 17, 18, 19
8, 21, 22, 23
9, 23, 24, 25
10, 25, 26, 27
11, 27, 28, 29
12, 29, 30, 31
13, 31, 32, 17
14, 33, 34, 35
15, 35, 36, 37
16, 37, 38, 39
17, 39, 40, 41
18, 41, 42, 43
19, 43, 44, 45
20, 45, 46, 47
** ... 245 like lines cut
*ELEMENT,TYPE=B32,ELSET=EFourFour
266, 33, 345, 346
267, 37, 347, 348
268, 41, 349, 350
269, 45, 351, 352
*ELEMENT,TYPE=B32,ELSET=ETwoTen
270, 370, 384, 376
271, 371, 387, 377
272, 90, 390, 82
273, 372, 393, 378
274, 373, 396, 379
275, 104, 399, 112
276, 374, 402, 380
277, 375, 405, 381
*ELEMENT,TYPE=B32,ELSET=EAcry
278, 370, 382, 383
279, 371, 385, 386
280, 90, 388, 389
281, 372, 391, 392
282, 373, 394, 395
283, 104, 397, 398
284, 374, 400, 401
285, 375, 403, 404
*ELSET,ELSET=EAll,GENERATE
1,285
*BOUNDARY
1,1,3
3,1,3
5,1,3
7,1,3
9,1,3
11,1,3
13,1,3
15,1,3
346,1,3
348,1,3
350,1,3
352,1,3
*MATERIAL,NAME=WOOD
*ELASTIC
1.8E8,.33
*DENSITY
34.
*MATERIAL,NAME=ACRY
*ELASTIC
6.0E7,.37
*DENSITY
74.3
*BEAM SECTION,ELSET=ETwoFour,MATERIAL=WOOD,SECTION=RECT
.292,.125
*BEAM SECTION,ELSET=EFourFour,MATERIAL=WOOD,SECTION=RECT
.292,.292
*BEAM SECTION,ELSET=ETwoTen,MATERIAL=WOOD,SECTION=RECT
.292,.25
*BEAM SECTION,ELSET=EAcry,MATERIAL=ACRY,SECTION=RECT
.592,.833
*STEP
*STATIC
*DLOAD
EAll,GRAV,3.22E1,0.,0.,-1.
*CLOAD
354,3,-209.439510239
356,3,-418.879020479
358,3,-418.879020479
360,3,-209.439510239
353,3,-418.879020479
355,3,-837.758040957
357,3,-837.758040957
359,3,-418.879020479
75,3,-209.439510239
77,3,-418.879020479
79,3,-418.879020479
65,3,-209.439510239
382,3,-200.
383,3,-200.
385,3,-200.
386,3,-200.
388,3,-200.
389,3,-200.
391,3,-200.
392,3,-200.
** ... 20 like lines cut
*EL PRINT,ELSET=ETwoFour
S
*EL PRINT,ELSET=ETwoTen
S
*EL FILE
S
*NODE FILE
U
*END STEP
