*NODE,NSET=Nall
1, 2.77163859753, -1.1480502971, 0.0
2, 2.77163859753, 0.0, 0.0
3, 2.77163859753, 1.1480502971, 0.0
4, 1.95984444731, 1.95984444731, 0.0
5, 1.1480502971, 2.77163859753, 0.0
6, 1.11022302463e-16, 2.77163859753, 0.0
7, -1.1480502971, 2.77163859753, 0.0
8, -1.95984444731, 1.95984444731, 0.0
9, -2.77163859753, 1.1480502971, 0.0
10, -2.77163859753, 3.33066907388e-16, 0.0
11, -2.77163859753, -1.1480502971, 0.0
12, -1.95984444731, -1.95984444731, 0.0
13, -1.1480502971, -2.77163859753, 0.0
14, -1.7763568394e-15, -2.77163859753, 0.0
15, 1.1480502971, -2.77163859753, 0.0
16, 1.95984444731, -1.95984444731, 0.0
17, 2.12132034356, -2.12132034356, 1.77777777778
18, 2.56066017178, -1.06066017178, 1.77777777778
19, 3.0, 0.0, 1.77777777778
20, 2.56066017178, 1.06066017178, 1.77777777778
** ... 402 like lines cut
*ELEMENT,TYPE=B32,ELSET=EFour
1, 1, 2, 3
2, 3, 4, 5
3, 5, 6, 7
4, 7, 8, 9
5, 9, 10, 11
6, 11, 12, 13
7, 13, 14, 15
8, 15, 16, 1
9, 17, 18, 19
10, 19, 20, 21
11, 21, 22, 23
12, 23, 24, 25
13, 25, 26, 27
14, 27, 28, 29
15, 29, 30, 31
16, 31, 32, 17
17, 33, 34, 35
18, 35, 36, 37
19, 37, 38, 39
20, 39, 40, 41
** ... 266 like lines cut
*ELEMENT,TYPE=B32,ELSET=ETen
287, 370, 382, 383
288, 371, 385, 386
289, 90, 388, 389
290, 372, 391, 392
291, 373, 394, 395
292, 104, 397, 398
293, 374, 400, 401
294, 375, 403, 404
*BOUNDARY
1,1,3
3,1,3
5,1,3
7,1,3
9,1,3
11,1,3
13,1,3
15,1,3
322,1,3
324,1,3
326,1,3
328,1,3
*MATERIAL,NAME=WOOD
*ELASTIC
2.5E8,.038
*BEAM SECTION,ELSET=EFour,MATERIAL=WOOD,SECTION=RECT
.125,.292
*BEAM SECTION,ELSET=ETen,MATERIAL=WOOD,SECTION=RECT
.125,.771
*STEP
*STATIC
*CLOAD
353,3,-200.
355,3,-200.
357,3,-200.
359,3,-200.
382,3,-200.
385,3,-200.
388,3,-200.
391,3,-200.
394,3,-200.
397,3,-200.
400,3,-200.
403,3,-200.
406,3,-200.
408,3,-200.
410,3,-200.
412,3,-200.
*EL PRINT,ELSET=Eall
S
*EL FILE
S
*NODE FILE
U
*END STEP
